
**** 09/21/19 06:38:58 ****** PSpice 17.2.0 (March 2016) ****** ID# 0 ********

 ** Profile: "SCHEMATIC1-ac_sweep"  [ D:\Engineering\STUDENTS\2019-2020\First_Term\Electronics-Lab\Lab#1Orcad\Exercise_4\exercise_4-P


 ****     CIRCUIT DESCRIPTION


******************************************************************************




** Creating circuit file "ac_sweep.cir" 
** WARNING: THIS AUTOMATICALLY GENERATED FILE MAY BE OVERWRITTEN BY SUBSEQUENT SIMULATIONS

*Libraries: 
* Profile Libraries :
* Local Libraries :
* From [PSPICE NETLIST] section of C:\Users\Ahmed Saleh\AppData\Roaming\SPB_Data\cdssetup\OrCAD_PSpice\17.2.0\PSpice.ini file:
.lib "nom.lib" 

*Analysis directives: 
.AC DEC 100 1 100k
.OPTIONS ADVCONV
.PROBE64 V(alias(*)) I(alias(*)) W(alias(*)) D(alias(*)) NOISE(alias(*)) 
.INC "..\SCHEMATIC1.net" 



**** INCLUDING SCHEMATIC1.net ****
* source EXERCISE_4
V_V1         N00754 0 DC 0Vdc AC 1Vac 
R_R1         N00754 N00767  27K TC=0,0 
C_C1         0 N00767  100n  TC=0,0 

**** RESUMING ac_sweep.cir ****
.END

**** 09/21/19 06:38:58 ****** PSpice 17.2.0 (March 2016) ****** ID# 0 ********

 ** Profile: "SCHEMATIC1-ac_sweep"  [ D:\Engineering\STUDENTS\2019-2020\First_Term\Electronics-Lab\Lab#1Orcad\Exercise_4\exercise_4-P


 ****     SMALL SIGNAL BIAS SOLUTION       TEMPERATURE =   27.000 DEG C


******************************************************************************



 NODE   VOLTAGE     NODE   VOLTAGE     NODE   VOLTAGE     NODE   VOLTAGE


(N00754)    0.0000 (N00767)    0.0000 




    VOLTAGE SOURCE CURRENTS
    NAME         CURRENT

    V_V1         0.000E+00

    TOTAL POWER DISSIPATION   0.00E+00  WATTS



          JOB CONCLUDED

**** 09/21/19 06:38:58 ****** PSpice 17.2.0 (March 2016) ****** ID# 0 ********

 ** Profile: "SCHEMATIC1-ac_sweep"  [ D:\Engineering\STUDENTS\2019-2020\First_Term\Electronics-Lab\Lab#1Orcad\Exercise_4\exercise_4-P


 ****     JOB STATISTICS SUMMARY


******************************************************************************



  Total job time (using Solver 1)   =         .06
