
**** 09/20/19 23:33:35 ****** PSpice 17.2.0 (March 2016) ****** ID# 0 ********

 ** Profile: "SCHEMATIC1-DC_Sweep"  [ D:\Engineering\STUDENTS\2019-2020\First_Term\Electronics-Lab\Lab#1Orcad\Exercise_2\exercise_2-P


 ****     CIRCUIT DESCRIPTION


******************************************************************************




** Creating circuit file "DC_Sweep.cir" 
** WARNING: THIS AUTOMATICALLY GENERATED FILE MAY BE OVERWRITTEN BY SUBSEQUENT SIMULATIONS

*Libraries: 
* Profile Libraries :
* Local Libraries :
* From [PSPICE NETLIST] section of C:\Users\Ahmed Saleh\AppData\Roaming\SPB_Data\cdssetup\OrCAD_PSpice\17.2.0\PSpice.ini file:
.lib "nom.lib" 

*Analysis directives: 
.DC LIN V_VCE 0 12 0.1 
+ LIN I_I1 40u 200u 40u 
.OPTIONS ADVCONV
.PROBE64 V(alias(*)) I(alias(*)) W(alias(*)) D(alias(*)) NOISE(alias(*)) 
.INC "..\SCHEMATIC1.net" 



**** INCLUDING SCHEMATIC1.net ****
* source EXERCISE_2
Q_Q1         VCE N00508 0 Q2N3904
R_R2         N00508 N00581  100k TC=0,0 
V_VCE         N00612 0 12Vdc
I_I1         0 N00581 DC 0Adc  
R_R1         N00612 VCE  10 TC=0,0 

**** RESUMING DC_Sweep.cir ****
.END

**** 09/20/19 23:33:35 ****** PSpice 17.2.0 (March 2016) ****** ID# 0 ********

 ** Profile: "SCHEMATIC1-DC_Sweep"  [ D:\Engineering\STUDENTS\2019-2020\First_Term\Electronics-Lab\Lab#1Orcad\Exercise_2\exercise_2-P


 ****     BJT MODEL PARAMETERS


******************************************************************************




               Q2N3904         
               NPN             
       LEVEL    1            
          IS    6.734000E-15 
          BF  416.4          
          NF    1            
         VAF   74.03         
         IKF     .06678      
         ISE    6.734000E-15 
          NE    1.259        
          BR     .7371       
          NR    1            
         ISS    0            
          RB   10            
          RE    0            
          RC    1            
         CJE    4.493000E-12 
         VJE     .75         
         MJE     .2593       
         CJC    3.638000E-12 
         VJC     .75         
         MJC     .3085       
        XCJC    1            
         CJS    0            
         VJS     .75         
          TF  301.200000E-12 
         XTF    2            
         VTF    4            
         ITF     .4          
          TR  239.500000E-09 
         XTB    1.5          
          KF    0            
          AF    1            
          CN    2.42         
           D     .87         



          JOB CONCLUDED

**** 09/20/19 23:33:35 ****** PSpice 17.2.0 (March 2016) ****** ID# 0 ********

 ** Profile: "SCHEMATIC1-DC_Sweep"  [ D:\Engineering\STUDENTS\2019-2020\First_Term\Electronics-Lab\Lab#1Orcad\Exercise_2\exercise_2-P


 ****     JOB STATISTICS SUMMARY


******************************************************************************



  License check-out time            =        3.19
  Total job time (using Solver 1)   =         .41
