
**** 09/21/19 06:22:59 ****** PSpice 17.2.0 (March 2016) ****** ID# 0 ********

 ** Profile: "SCHEMATIC1-tarnsient"  [ D:\Engineering\STUDENTS\2019-2020\First_Term\Electronics-Lab\Lab#1Orcad\Exercise_4\exercise_4-


 ****     CIRCUIT DESCRIPTION


******************************************************************************




** Creating circuit file "tarnsient.cir" 
** WARNING: THIS AUTOMATICALLY GENERATED FILE MAY BE OVERWRITTEN BY SUBSEQUENT SIMULATIONS

*Libraries: 
* Profile Libraries :
* Local Libraries :
.STMLIB "../../../stimulus.stl" 
* From [PSPICE NETLIST] section of C:\Users\Ahmed Saleh\AppData\Roaming\SPB_Data\cdssetup\OrCAD_PSpice\17.2.0\PSpice.ini file:
.lib "nom.lib" 

*Analysis directives: 
.TRAN  0 20ms 0 
.OPTIONS ADVCONV
.PROBE64 V(alias(*)) I(alias(*)) W(alias(*)) D(alias(*)) NOISE(alias(*)) 
.INC "..\SCHEMATIC1.net" 



**** INCLUDING SCHEMATIC1.net ****
* source EXERCISE_4
R_R1         0 N00510  1k TC=0,0 
V_V1         N00510 0   STIMULUS=vpulse

**** RESUMING tarnsient.cir ****
.END
* D:\Engineering\STUDENTS\2019-2020\First_Term\Electronics-Lab\Lab#1Orcad\Exercise_4\stimulus.stl written on Sat Sep 21 06:22:18 2019
* by Stimulus Editor -- Serial Number: 0 -- Version 17.2.0
;!Stimulus Get
;! sin100Hz Analog vpulse Analog
;!Ok
;!Plot Axis_Settings
;!Xrange 0s 30ms
;!Yrange -1 1
;!AutoUniverse
;!XminRes 1ns
;!YminRes 1n
;!Ok
.STIMULUS sin100Hz SIN( 0 1 100 0 0 0 )
.STIMULUS vpulse PULSE( 0 1 0 500u 1m 2m 10m )

**** 09/21/19 06:22:59 ****** PSpice 17.2.0 (March 2016) ****** ID# 0 ********

 ** Profile: "SCHEMATIC1-tarnsient"  [ D:\Engineering\STUDENTS\2019-2020\First_Term\Electronics-Lab\Lab#1Orcad\Exercise_4\exercise_4-


 ****     INITIAL TRANSIENT SOLUTION       TEMPERATURE =   27.000 DEG C


******************************************************************************



 NODE   VOLTAGE     NODE   VOLTAGE     NODE   VOLTAGE     NODE   VOLTAGE


(N00510)    0.0000 




    VOLTAGE SOURCE CURRENTS
    NAME         CURRENT

    V_V1         0.000E+00

    TOTAL POWER DISSIPATION   0.00E+00  WATTS



          JOB CONCLUDED

**** 09/21/19 06:22:59 ****** PSpice 17.2.0 (March 2016) ****** ID# 0 ********

 ** Profile: "SCHEMATIC1-tarnsient"  [ D:\Engineering\STUDENTS\2019-2020\First_Term\Electronics-Lab\Lab#1Orcad\Exercise_4\exercise_4-


 ****     JOB STATISTICS SUMMARY


******************************************************************************



  Total job time (using Solver 1)   =         .03
